<?xml version="1.0" encoding="UTF-8"?>

<!-- generated on 2021-08-15 13:16:54 by Eclipse SUMO netedit Version 1.9.2
<configuration xmlns:xsi="http://www.w3.org/2001/XMLSchema-instance" xsi:noNamespaceSchemaLocation="http://sumo.dlr.de/xsd/netconvertConfiguration.xsd">

    <input>
        <sumo-net-file value="E:\SUMO\wy\osm.net"/>
    </input>

    <output>
        <output-file value="E:\SUMO\wy\25agents.net.xml"/>
        <output.street-names value="true"/>
    </output>

    <processing>
        <geometry.min-radius.fix.railways value="false"/>
        <geometry.max-grade.fix value="false"/>
        <offset.disable-normalization value="true"/>
        <lefthand value="true"/>
    </processing>

    <junctions>
        <no-turnarounds value="true"/>
        <junctions.corner-detail value="5"/>
        <junctions.limit-turn-speed value="5.5"/>
        <rectangular-lane-cut value="false"/>
    </junctions>

    <pedestrian>
        <walkingareas value="false"/>
    </pedestrian>

    <report>
        <aggregate-warnings value="5"/>
    </report>

</configuration>
-->

<net version="1.9" junctionCornerDetail="5" lefthand="true" limitTurnSpeed="5.50" xmlns:xsi="http://www.w3.org/2001/XMLSchema-instance" xsi:noNamespaceSchemaLocation="http://sumo.dlr.de/xsd/net_file.xsd">

    <location netOffset="-354248.14,-147340.47" convBoundary="312.88,20.70,2400.66,2175.79" origBoundary="103.675220,1.288762,103.819580,1.386017" projParameter="+proj=utm +zone=48 +ellps=WGS84 +datum=WGS84 +units=m +no_defs"/>

    <type id="highway.bridleway" priority="1" numLanes="1" speed="2.78" allow="pedestrian" oneway="1" width="2.00"/>
    <type id="highway.bus_guideway" priority="1" numLanes="1" speed="27.78" allow="bus" oneway="1"/>
    <type id="highway.cycleway" priority="1" numLanes="1" speed="8.33" allow="bicycle" oneway="1" width="1.00"/>
    <type id="highway.footway" priority="1" numLanes="1" speed="2.78" allow="pedestrian" oneway="1" width="2.00"/>
    <type id="highway.ford" priority="1" numLanes="1" speed="2.78" allow="army" oneway="1"/>
    <type id="highway.living_street" priority="2" numLanes="1" speed="2.78" disallow="tram rail_urban rail rail_electric rail_fast ship" oneway="1"/>
    <type id="highway.motorway" priority="14" numLanes="2" speed="39.44" allow="private emergency authority army vip passenger hov taxi bus coach delivery truck trailer motorcycle evehicle custom1 custom2" oneway="1"/>
    <type id="highway.motorway_link" priority="9" numLanes="1" speed="22.22" allow="private emergency authority army vip passenger hov taxi bus coach delivery truck trailer motorcycle evehicle custom1 custom2" oneway="1"/>
    <type id="highway.path" priority="1" numLanes="1" speed="2.78" allow="pedestrian bicycle" oneway="1" width="2.00"/>
    <type id="highway.pedestrian" priority="1" numLanes="1" speed="2.78" allow="pedestrian" oneway="1" width="2.00"/>
    <type id="highway.primary" priority="12" numLanes="2" speed="27.78" disallow="tram rail_urban rail rail_electric rail_fast ship" oneway="1"/>
    <type id="highway.primary_link" priority="7" numLanes="1" speed="22.22" disallow="tram rail_urban rail rail_electric rail_fast ship" oneway="1"/>
    <type id="highway.raceway" priority="15" numLanes="2" speed="83.33" allow="vip" oneway="1"/>
    <type id="highway.residential" priority="3" numLanes="1" speed="13.89" disallow="tram rail_urban rail rail_electric rail_fast ship" oneway="1"/>
    <type id="highway.secondary" priority="11" numLanes="1" speed="27.78" disallow="tram rail_urban rail rail_electric rail_fast ship" oneway="1"/>
    <type id="highway.secondary_link" priority="6" numLanes="1" speed="22.22" disallow="tram rail_urban rail rail_electric rail_fast ship" oneway="1"/>
    <type id="highway.service" priority="1" numLanes="1" speed="5.56" allow="pedestrian delivery bicycle" oneway="1"/>
    <type id="highway.stairs" priority="1" numLanes="1" speed="1.39" allow="pedestrian" oneway="1" width="2.00"/>
    <type id="highway.step" priority="1" numLanes="1" speed="1.39" allow="pedestrian" oneway="1" width="2.00"/>
    <type id="highway.steps" priority="1" numLanes="1" speed="1.39" allow="pedestrian" oneway="1" width="2.00"/>
    <type id="highway.tertiary" priority="10" numLanes="1" speed="22.22" disallow="tram rail_urban rail rail_electric rail_fast ship" oneway="1"/>
    <type id="highway.tertiary_link" priority="5" numLanes="1" speed="22.22" disallow="tram rail_urban rail rail_electric rail_fast ship" oneway="1"/>
    <type id="highway.track" priority="1" numLanes="1" speed="5.56" allow="pedestrian motorcycle moped bicycle" oneway="1"/>
    <type id="highway.trunk" priority="13" numLanes="2" speed="27.78" disallow="pedestrian bicycle tram rail_urban rail rail_electric rail_fast ship" oneway="1"/>
    <type id="highway.trunk_link" priority="8" numLanes="1" speed="22.22" disallow="pedestrian bicycle tram rail_urban rail rail_electric rail_fast ship" oneway="1"/>
    <type id="highway.unclassified" priority="4" numLanes="1" speed="13.89" disallow="tram rail_urban rail rail_electric rail_fast ship" oneway="1"/>
    <type id="highway.unsurfaced" priority="1" numLanes="1" speed="8.33" disallow="tram rail_urban rail rail_electric rail_fast ship" oneway="1"/>
    <type id="railway.highspeed" priority="21" numLanes="1" speed="69.44" allow="rail_fast" oneway="1"/>
    <type id="railway.light_rail" priority="19" numLanes="1" speed="27.78" allow="rail_urban" oneway="1"/>
    <type id="railway.preserved" priority="16" numLanes="1" speed="27.78" allow="rail" oneway="1"/>
    <type id="railway.rail" priority="20" numLanes="1" speed="44.44" allow="rail" oneway="1"/>
    <type id="railway.subway" priority="18" numLanes="1" speed="27.78" allow="rail_urban" oneway="1"/>
    <type id="railway.tram" priority="17" numLanes="1" speed="13.89" allow="tram" oneway="1"/>

    <edge id=":1022340611_0" function="internal">
        <lane id=":1022340611_0_0" index="0" disallow="tram rail_urban rail rail_electric rail_fast ship" speed="13.89" length="8.20" shape="1633.74,933.47 1631.44,932.71 1629.98,931.83 1628.52,930.96 1626.22,930.23"/>
        <lane id=":1022340611_0_1" index="1" disallow="tram rail_urban rail rail_electric rail_fast ship" speed="13.89" length="8.20" shape="1633.05,936.59 1630.76,935.83 1629.32,934.96 1627.87,934.09 1625.58,933.36"/>
        <lane id=":1022340611_0_2" index="2" disallow="tram rail_urban rail rail_electric rail_fast ship" speed="13.89" length="8.20" shape="1633.05,936.59 1630.67,936.32 1628.99,936.52 1627.32,936.74 1624.93,936.50"/>
    </edge>
    <edge id=":1130350669_0" function="internal">
        <lane id=":1130350669_0_0" index="0" disallow="tram rail_urban rail rail_electric rail_fast ship" speed="15.28" length="19.01" shape="2062.16,1026.29 2058.76,1030.69 2055.81,1033.24 2052.18,1034.82 2046.78,1036.31"/>
        <lane id=":1130350669_0_1" index="1" disallow="tram rail_urban rail rail_electric rail_fast ship" speed="15.28" length="20.18" shape="2064.76,1028.15 2061.19,1032.87 2058.14,1035.69 2054.37,1037.49 2048.68,1039.12"/>
    </edge>
    <edge id=":1130350669_2" function="internal">
        <lane id=":1130350669_2_0" index="0" disallow="tram rail_urban rail rail_electric rail_fast ship" speed="16.67" length="19.67" shape="2064.76,1028.15 2052.61,1043.74"/>
        <lane id=":1130350669_2_1" index="1" disallow="tram rail_urban rail rail_electric rail_fast ship" speed="16.67" length="19.67" shape="2067.37,1030.00 2055.27,1045.51"/>
        <lane id=":1130350669_2_2" index="2" disallow="tram rail_urban rail rail_electric rail_fast ship" speed="16.67" length="19.67" shape="2069.98,1031.86 2057.94,1047.29"/>
    </edge>
    <edge id=":1150364792_0" function="internal">
        <lane id=":1150364792_0_0" index="0" disallow="tram rail_urban rail rail_electric rail_fast ship" speed="12.50" length="0.10" shape="1211.90,960.49 1211.90,960.49"/>
    </edge>
    <edge id=":1150364792_1" function="internal">
        <lane id=":1150364792_1_0" index="0" disallow="tram rail_urban rail rail_electric rail_fast ship" speed="12.50" length="0.10" shape="1215.06,961.01 1215.06,961.01"/>
    </edge>
    <edge id=":1205809969_0" function="internal">
        <lane id=":1205809969_0_0" index="0" disallow="tram rail_urban rail rail_electric rail_fast ship" speed="8.99" length="5.45" shape="743.17,964.06 741.92,965.02 740.90,965.44 739.76,965.56 738.14,965.64"/>
    </edge>
    <edge id=":1205809969_1" function="internal">
        <lane id=":1205809969_1_0" index="0" disallow="tram rail_urban rail rail_electric rail_fast ship" speed="13.89" length="5.61" shape="745.28,966.47 743.92,967.42 742.83,967.85 741.75,968.30 740.43,969.28"/>
        <lane id=":1205809969_1_1" index="1" disallow="tram rail_urban rail rail_electric rail_fast ship" speed="13.89" length="5.61" shape="747.39,968.88 746.05,969.81 744.98,970.23 743.91,970.66 742.61,971.63"/>
    </edge>
    <edge id=":1205809975_0" function="internal">
        <lane id=":1205809975_0_0" index="0" disallow="tram rail_urban rail rail_electric rail_fast ship" speed="13.89" length="8.04" shape="757.56,953.30 755.74,954.73 754.25,955.39 752.73,956.02 750.82,957.37"/>
        <lane id=":1205809975_0_1" index="1" disallow="tram rail_urban rail rail_electric rail_fast ship" speed="13.89" length="8.04" shape="757.56,953.30 756.06,955.12 755.30,956.60 754.52,958.05 752.93,959.77"/>
        <lane id=":1205809975_0_2" index="2" disallow="tram rail_urban rail rail_electric rail_fast ship" speed="13.89" length="8.04" shape="759.80,955.59 758.26,957.44 757.48,958.95 756.66,960.42 755.04,962.18"/>
    </edge>
    <edge id=":1228774984_0" function="internal">
        <lane id=":1228774984_0_0" index="0" disallow="tram rail_urban rail rail_electric rail_fast ship" speed="13.89" length="7.98" shape="1440.95,1350.90 1439.39,1352.72 1438.05,1353.75 1436.75,1354.81 1435.32,1356.72"/>
        <lane id=":1228774984_0_1" index="1" disallow="tram rail_urban rail rail_electric rail_fast ship" speed="13.89" length="7.98" shape="1443.58,1352.71 1442.06,1354.49 1440.74,1355.48 1439.47,1356.50 1438.07,1358.35"/>
        <lane id=":1228774984_0_2" index="2" disallow="tram rail_urban rail rail_electric rail_fast ship" speed="13.89" length="7.98" shape="1443.58,1352.71 1442.50,1354.73 1442.12,1356.30 1441.78,1357.89 1440.82,1359.99"/>
    </edge>
    <edge id=":1228774991_0" function="internal">
        <lane id=":1228774991_0_0" index="0" disallow="tram rail_urban rail rail_electric rail_fast ship" speed="8.51" length="7.44" shape="1416.72,1418.83 1416.23,1416.45 1416.10,1414.45 1416.31,1412.82 1416.87,1411.58"/>
    </edge>
    <edge id=":1228774991_1" function="internal">
        <lane id=":1228774991_1_0" index="0" disallow="tram rail_urban rail rail_electric rail_fast ship" speed="13.89" length="7.89" shape="1412.34,1418.03 1416.87,1411.58"/>
        <lane id=":1228774991_1_1" index="1" disallow="tram rail_urban rail rail_electric rail_fast ship" speed="13.89" length="7.89" shape="1409.72,1416.19 1414.25,1409.74"/>
    </edge>
    <edge id=":1228775005_0" function="internal">
        <lane id=":1228775005_0_0" index="0" disallow="tram rail_urban rail rail_electric rail_fast ship" speed="19.44" length="8.21" shape="1468.35,1466.75 1466.32,1465.45 1465.13,1464.24 1463.94,1463.03 1461.91,1461.74"/>
        <lane id=":1228775005_0_1" index="1" disallow="tram rail_urban rail rail_electric rail_fast ship" speed="19.44" length="8.21" shape="1468.35,1466.75 1466.09,1465.90 1464.41,1465.67 1462.73,1465.45 1460.48,1464.60"/>
        <lane id=":1228775005_0_2" index="2" disallow="tram rail_urban rail rail_electric rail_fast ship" speed="19.44" length="8.21" shape="1466.91,1469.61 1464.66,1468.76 1462.98,1468.54 1461.30,1468.31 1459.04,1467.46"/>
        <lane id=":1228775005_0_3" index="3" disallow="tram rail_urban rail rail_electric rail_fast ship" speed="19.44" length="8.21" shape="1465.48,1472.47 1463.22,1471.62 1461.54,1471.40 1459.87,1471.17 1457.61,1470.32"/>
        <lane id=":1228775005_0_4" index="4" disallow="tram rail_urban rail rail_electric rail_fast ship" speed="19.44" length="8.21" shape="1464.04,1475.33 1461.79,1474.48 1460.11,1474.26 1458.43,1474.03 1456.18,1473.18"/>
    </edge>
    <edge id=":1228775011_0" function="internal">
        <lane id=":1228775011_0_0" index="0" disallow="tram rail_urban rail rail_electric rail_fast ship" speed="13.89" length="7.67" shape="1417.54,1386.59 1416.24,1388.27 1415.02,1389.16 1413.76,1390.01 1412.28,1391.59"/>
        <lane id=":1228775011_0_1" index="1" disallow="tram rail_urban rail rail_electric rail_fast ship" speed="13.89" length="7.67" shape="1417.54,1386.59 1416.63,1388.59 1416.31,1390.12 1415.94,1391.61 1414.85,1393.49"/>
        <lane id=":1228775011_0_2" index="2" disallow="tram rail_urban rail rail_electric rail_fast ship" speed="13.89" length="7.67" shape="1420.29,1388.22 1419.33,1390.31 1418.98,1391.89 1418.56,1393.44 1417.42,1395.40"/>
        <lane id=":1228775011_0_3" index="3" disallow="tram rail_urban rail rail_electric rail_fast ship" speed="13.89" length="7.67" shape="1423.03,1389.86 1422.03,1392.03 1421.64,1393.67 1421.19,1395.27 1419.99,1397.31"/>
    </edge>
    <edge id=":1228775013_0" function="internal">
        <lane id=":1228775013_0_0" index="0" disallow="tram rail_urban rail rail_electric rail_fast ship" speed="8.78" length="4.81" shape="1428.52,1445.02 1427.30,1444.33 1426.58,1443.67 1426.04,1442.82 1425.39,1441.56"/>
    </edge>
    <edge id=":1228775013_1" function="internal">
        <lane id=":1228775013_1_0" index="0" disallow="tram rail_urban rail rail_electric rail_fast ship" speed="19.44" length="5.43" shape="1427.09,1447.88 1425.70,1446.98 1424.88,1446.13 1424.06,1445.31 1422.64,1444.48"/>
        <lane id=":1228775013_1_1" index="1" disallow="tram rail_urban rail rail_electric rail_fast ship" speed="19.44" length="5.43" shape="1425.66,1450.74 1424.30,1449.86 1423.52,1449.03 1422.72,1448.22 1421.34,1447.40"/>
        <lane id=":1228775013_1_2" index="2" disallow="tram rail_urban rail rail_electric rail_fast ship" speed="19.44" length="5.43" shape="1424.22,1453.60 1422.91,1452.74 1422.15,1451.92 1421.38,1451.13 1420.04,1450.33"/>
        <lane id=":1228775013_1_3" index="3" disallow="tram rail_urban rail rail_electric rail_fast ship" speed="19.44" length="5.43" shape="1422.79,1456.46 1421.51,1455.62 1420.78,1454.81 1420.04,1454.03 1418.73,1453.25"/>
    </edge>
    <edge id=":1301958730_0" function="internal">
        <lane id=":1301958730_0_0" index="0" disallow="tram rail_urban rail rail_electric rail_fast ship" speed="16.67" length="7.87" shape="614.33,675.34 613.32,677.28 612.27,678.41 611.17,679.52 609.99,681.39"/>
        <lane id=":1301958730_0_1" index="1" disallow="tram rail_urban rail rail_electric rail_fast ship" speed="16.67" length="7.87" shape="617.32,676.48 616.28,678.49 615.21,679.68 614.08,680.83 612.87,682.78"/>
        <lane id=":1301958730_0_2" index="2" disallow="tram rail_urban rail rail_electric rail_fast ship" speed="16.67" length="7.87" shape="620.31,677.61 619.25,679.70 618.15,680.94 617.00,682.15 615.76,684.17"/>
        <lane id=":1301958730_0_3" index="3" disallow="tram rail_urban rail rail_electric rail_fast ship" speed="16.67" length="7.87" shape="620.31,677.61 619.69,679.94 619.60,681.64 619.44,683.31 618.64,685.56"/>
    </edge>
    <edge id=":1301958743_0" function="internal">
        <lane id=":1301958743_0_0" index="0" disallow="tram rail_urban rail rail_electric rail_fast ship" speed="16.67" length="14.13" shape="557.86,775.99 551.04,788.66"/>
        <lane id=":1301958743_0_1" index="1" disallow="tram rail_urban rail rail_electric rail_fast ship" speed="16.67" length="14.13" shape="560.63,777.58 553.90,790.10"/>
        <lane id=":1301958743_0_2" index="2" disallow="tram rail_urban rail rail_electric rail_fast ship" speed="16.67" length="14.13" shape="563.41,779.17 556.75,791.54"/>
        <lane id=":1301958743_0_3" index="3" disallow="tram rail_urban rail rail_electric rail_fast ship" speed="16.67" length="14.13" shape="566.18,780.77 559.61,792.99"/>
    </edge>
    <edge id=":1301958743_4" function="internal">
        <lane id=":1301958743_4_0" index="0" disallow="tram rail_urban rail rail_electric rail_fast ship" speed="7.25" length="9.62" shape="566.63,787.61 563.78,786.42 561.18,786.68 558.84,788.39 556.75,791.54"/>
        <lane id=":1301958743_4_1" index="1" disallow="tram rail_urban rail rail_electric rail_fast ship" speed="5.57" length="9.62" shape="564.90,790.30 563.45,789.75 562.09,790.02 560.81,791.10 559.61,792.99"/>
    </edge>
    <edge id=":1304344446_0" function="internal">
        <lane id=":1304344446_0_0" index="0" disallow="tram rail_urban rail rail_electric rail_fast ship" speed="11.55" length="3.59" shape="1469.66,2027.82 1470.29,2026.96 1470.78,2026.41 1471.36,2025.96 1472.26,2025.40"/>
    </edge>
    <edge id=":1304344446_1" function="internal">
        <lane id=":1304344446_1_0" index="0" disallow="tram rail_urban rail rail_electric rail_fast ship" speed="16.67" length="5.60" shape="1467.05,2025.96 1470.33,2021.15"/>
        <lane id=":1304344446_1_1" index="1" disallow="tram rail_urban rail rail_electric rail_fast ship" speed="16.67" length="5.60" shape="1464.45,2024.11 1467.60,2019.48"/>
        <lane id=":1304344446_1_2" index="2" disallow="tram rail_urban rail rail_electric rail_fast ship" speed="16.67" length="5.60" shape="1461.84,2022.25 1464.87,2017.80"/>
    </edge>
    <edge id=":1307515813_0" function="internal">
        <lane id=":1307515813_0_0" index="0" disallow="tram rail_urban rail rail_electric rail_fast ship" speed="19.44" length="7.95" shape="2193.13,828.34 2194.13,826.16 2195.15,824.80 2196.11,823.43 2196.97,821.21"/>
        <lane id=":1307515813_0_1" index="1" disallow="tram rail_urban rail rail_electric rail_fast ship" speed="19.44" length="7.95" shape="2190.10,827.31 2191.08,825.19 2192.08,823.87 2193.04,822.55 2193.88,820.38"/>
        <lane id=":1307515813_0_2" index="2" disallow="tram rail_urban rail rail_electric rail_fast ship" speed="19.44" length="7.95" shape="2187.07,826.28 2188.03,824.22 2189.02,822.94 2189.96,821.66 2190.79,819.55"/>
    </edge>
    <edge id=":1599179208_0" function="internal">
        <lane id=":1599179208_0_0" index="0" disallow="tram rail_urban rail rail_electric rail_fast ship" speed="19.44" length="8.20" shape="1086.92,224.81 1084.51,224.53 1082.91,223.97 1081.30,223.41 1078.89,223.16"/>
        <lane id=":1599179208_0_1" index="1" disallow="tram rail_urban rail rail_electric rail_fast ship" speed="19.44" length="8.20" shape="1086.89,228.01 1084.49,227.73 1082.89,227.17 1081.29,226.61 1078.89,226.36"/>
        <lane id=":1599179208_0_2" index="2" disallow="tram rail_urban rail rail_electric rail_fast ship" speed="19.44" length="8.20" shape="1086.85,231.21 1084.46,230.93 1082.87,230.37 1081.28,229.81 1078.90,229.56"/>
        <lane id=":1599179208_0_3" index="3" disallow="tram rail_urban rail rail_electric rail_fast ship" speed="19.44" length="8.20" shape="1086.85,231.21 1084.47,231.43 1082.87,231.97 1081.28,232.51 1078.90,232.76"/>
    </edge>
    <edge id=":1599181888_0" function="internal">
        <lane id=":1599181888_0_0" index="0" disallow="tram rail_urban rail rail_electric rail_fast ship" speed="12.50" length="0.30" shape="1113.62,834.72 1113.32,834.67"/>
        <lane id=":1599181888_0_1" index="1" disallow="tram rail_urban rail rail_electric rail_fast ship" speed="12.50" length="0.30" shape="1113.05,837.87 1112.77,837.82"/>
    </edge>
    <edge id=":1599189911_0" function="internal">
        <lane id=":1599189911_0_0" index="0" disallow="tram rail_urban rail rail_electric rail_fast ship" speed="13.89" length="19.06" shape="1515.47,905.24 1511.85,906.44 1507.80,907.37 1502.91,907.67 1496.76,906.95"/>
    </edge>
    <edge id=":1599189911_1" function="internal">
        <lane id=":1599189911_1_0" index="0" disallow="tram rail_urban rail rail_electric rail_fast ship" speed="13.89" length="19.04" shape="1515.46,910.48 1496.76,906.95"/>
        <lane id=":1599189911_1_1" index="1" disallow="tram rail_urban rail rail_electric rail_fast ship" speed="13.89" length="19.04" shape="1514.86,913.63 1496.15,910.09"/>
    </edge>
    <edge id=":1599189928_0" function="internal">
        <lane id=":1599189928_0_0" index="0" disallow="tram rail_urban rail rail_electric rail_fast ship" speed="13.89" length="8.53" shape="1545.94,942.05 1544.93,950.51"/>
        <lane id=":1599189928_0_1" index="1" disallow="tram rail_urban rail rail_electric rail_fast ship" speed="13.89" length="8.53" shape="1549.12,942.43 1548.11,950.91"/>
    </edge>
    <edge id=":1599189928_2" function="internal">
        <lane id=":1599189928_2_0" index="0" disallow="tram rail_urban rail rail_electric rail_fast ship" speed="10.38" length="8.60" shape="1541.89,942.83 1543.42,944.89 1544.47,946.41 1545.00,948.06 1544.93,950.51"/>
    </edge>
    <edge id=":1599226656_0" function="internal">
        <lane id=":1599226656_0_0" index="0" disallow="tram rail_urban rail rail_electric rail_fast ship" speed="19.44" length="8.08" shape="2191.49,726.28 2190.82,728.51 2189.59,729.79 2188.31,731.07 2187.48,733.28"/>
        <lane id=":1599226656_0_1" index="1" disallow="tram rail_urban rail rail_electric rail_fast ship" speed="19.44" length="8.08" shape="2191.49,726.28 2190.64,733.75"/>
        <lane id=":1599226656_0_2" index="2" disallow="tram rail_urban rail rail_electric rail_fast ship" speed="19.44" length="8.08" shape="2194.68,726.53 2193.81,734.22"/>
        <lane id=":1599226656_0_3" index="3" disallow="tram rail_urban rail rail_electric rail_fast ship" speed="19.44" length="8.08" shape="2197.87,726.77 2196.97,734.70"/>
        <lane id=":1599226656_0_4" index="4" disallow="tram rail_urban rail rail_electric rail_fast ship" speed="19.44" length="8.08" shape="2197.87,726.77 2198.17,729.31 2199.12,730.98 2200.01,732.65 2200.14,735.17"/>
    </edge>
    <edge id=":1599226659_0" function="internal">
        <lane id=":1599226659_0_0" index="0" disallow="tram rail_urban rail rail_electric rail_fast ship" speed="19.44" length="8.21" shape="2182.31,767.42 2181.51,769.70 2180.60,771.13 2179.70,772.56 2178.90,774.84"/>
        <lane id=":1599226659_0_1" index="1" disallow="tram rail_urban rail rail_electric rail_fast ship" speed="19.44" length="8.21" shape="2185.42,768.17 2184.62,770.44 2183.72,771.87 2182.81,773.31 2182.01,775.58"/>
        <lane id=":1599226659_0_2" index="2" disallow="tram rail_urban rail rail_electric rail_fast ship" speed="19.44" length="8.21" shape="2188.54,768.91 2187.74,771.18 2186.83,772.62 2185.92,774.05 2185.12,776.32"/>
        <lane id=":1599226659_0_3" index="3" disallow="tram rail_urban rail rail_electric rail_fast ship" speed="19.44" length="8.21" shape="2191.65,769.65 2190.85,771.93 2189.94,773.36 2189.03,774.79 2188.24,777.06"/>
        <lane id=":1599226659_0_4" index="4" disallow="tram rail_urban rail rail_electric rail_fast ship" speed="19.44" length="8.21" shape="2191.65,769.65 2191.33,772.04 2191.50,773.73 2191.66,775.42 2191.35,777.80"/>
    </edge>
    <edge id=":1599226664_0" function="internal">
        <lane id=":1599226664_0_0" index="0" disallow="tram rail_urban rail rail_electric rail_fast ship" speed="16.67" length="14.92" shape="2145.32,885.22 2139.15,898.83"/>
        <lane id=":1599226664_0_1" index="1" disallow="tram rail_urban rail rail_electric rail_fast ship" speed="16.67" length="14.92" shape="2148.23,886.54 2142.08,900.13"/>
        <lane id=":1599226664_0_2" index="2" disallow="tram rail_urban rail rail_electric rail_fast ship" speed="16.67" length="14.92" shape="2151.15,887.85 2145.00,901.42"/>
    </edge>
    <edge id=":1599226664_3" function="internal">
        <lane id=":1599226664_3_0" index="0" disallow="tram rail_urban rail rail_electric rail_fast ship" speed="15.28" length="14.83" shape="2140.43,884.28 2140.74,887.73 2140.98,890.93 2140.63,894.44 2139.15,898.83"/>
    </edge>
    <edge id=":1599226667_0" function="internal">
        <lane id=":1599226667_0_0" index="0" disallow="tram rail_urban rail rail_electric rail_fast ship" speed="15.28" length="44.30" shape="2149.49,933.81 2155.96,921.55 2163.35,912.24 2170.98,905.56 2178.16,901.19"/>
        <lane id=":1599226667_0_1" index="1" disallow="tram rail_urban rail rail_electric rail_fast ship" speed="15.28" length="44.45" shape="2149.49,933.81 2155.58,921.19 2162.12,911.06 2168.90,903.57 2175.69,898.84"/>
    </edge>
    <edge id=":1599226667_2" function="internal">
        <lane id=":1599226667_2_0" index="0" disallow="tram rail_urban rail rail_electric rail_fast ship" speed="16.67" length="48.31" shape="2149.49,933.81 2155.08,922.63 2160.64,914.39 2166.71,905.57 2173.83,892.67"/>
        <lane id=":1599226667_2_1" index="1" disallow="tram rail_urban rail rail_electric rail_fast ship" speed="16.67" length="48.31" shape="2146.53,932.58 2152.13,921.37 2157.72,913.08 2163.82,904.21 2170.98,891.22"/>
        <lane id=":1599226667_2_2" index="2" disallow="tram rail_urban rail rail_electric rail_fast ship" speed="16.67" length="48.31" shape="2143.58,931.34 2149.19,920.12 2154.79,911.78 2160.93,902.84 2168.12,889.78"/>
        <lane id=":1599226667_2_3" index="3" disallow="tram rail_urban rail rail_electric rail_fast ship" speed="16.67" length="48.31" shape="2140.63,930.11 2146.25,918.87 2151.87,910.48 2158.03,901.47 2165.27,888.33"/>
        <lane id=":1599226667_2_4" index="4" disallow="tram rail_urban rail rail_electric rail_fast ship" speed="16.67" length="48.31" shape="2140.63,930.11 2162.41,886.88"/>
        <lane id=":1599226667_2_5" index="5" disallow="tram rail_urban rail rail_electric rail_fast ship" speed="16.67" length="48.31" shape="2140.63,930.11 2159.56,885.44"/>
    </edge>
    <edge id=":1599226671_0" function="internal">
        <lane id=":1599226671_0_0" index="0" disallow="tram rail_urban rail rail_electric rail_fast ship" speed="16.67" length="7.93" shape="2094.21,983.56 2092.83,985.33 2091.58,986.29 2090.28,987.21 2088.77,988.90"/>
        <lane id=":1599226671_0_1" index="1" disallow="tram rail_urban rail rail_electric rail_fast ship" speed="16.67" length="7.93" shape="2094.21,983.56 2093.23,985.63 2092.88,987.22 2092.49,988.77 2091.38,990.76"/>
        <lane id=":1599226671_0_2" index="2" disallow="tram rail_urban rail rail_electric rail_fast ship" speed="16.67" length="7.93" shape="2096.94,985.22 2095.93,987.36 2095.56,988.98 2095.13,990.57 2093.99,992.61"/>
        <lane id=":1599226671_0_3" index="3" disallow="tram rail_urban rail rail_electric rail_fast ship" speed="16.67" length="7.93" shape="2099.68,986.89 2098.63,989.08 2098.23,990.74 2097.78,992.37 2096.60,994.47"/>
    </edge>
    <edge id=":1846451390_0" function="internal">
        <lane id=":1846451390_0_0" index="0" disallow="tram rail_urban rail rail_electric rail_fast ship" speed="16.67" length="8.13" shape="523.62,869.55 525.28,867.76 526.68,866.78 528.06,865.77 529.63,863.92"/>
        <lane id=":1846451390_0_1" index="1" disallow="tram rail_urban rail rail_electric rail_fast ship" speed="16.67" length="8.13" shape="523.62,869.55 524.86,867.49 525.36,865.87 525.84,864.24 526.99,862.11"/>
        <lane id=":1846451390_0_2" index="2" disallow="tram rail_urban rail rail_electric rail_fast ship" speed="16.67" length="8.13" shape="521.07,867.63 522.28,865.60 522.76,864.01 523.22,862.40 524.35,860.31"/>
        <lane id=":1846451390_0_3" index="3" disallow="tram rail_urban rail rail_electric rail_fast ship" speed="16.67" length="8.13" shape="518.51,865.70 519.70,863.71 520.16,862.14 520.60,860.55 521.71,858.50"/>
    </edge>
    <edge id=":1846451394_0" function="internal">
        <lane id=":1846451394_0_0" index="0" disallow="tram rail_urban rail rail_electric rail_fast ship" speed="19.44" length="7.51" shape="659.83,940.48 661.13,942.50 661.75,944.08 662.44,945.59 663.95,947.42"/>
        <lane id=":1846451394_0_1" index="1" disallow="tram rail_urban rail rail_electric rail_fast ship" speed="19.44" length="7.51" shape="659.83,940.48 661.47,942.12 662.87,942.93 664.35,943.68 666.19,945.13"/>
        <lane id=":1846451394_0_2" index="2" disallow="tram rail_urban rail rail_electric rail_fast ship" speed="19.44" length="7.51" shape="662.34,938.49 663.90,940.04 665.25,940.78 666.67,941.47 668.42,942.84"/>
        <lane id=":1846451394_0_3" index="3" disallow="tram rail_urban rail rail_electric rail_fast ship" speed="19.44" length="7.51" shape="664.84,936.50 666.33,937.95 667.63,938.64 668.99,939.27 670.66,940.56"/>
        <lane id=":1846451394_0_4" index="4" disallow="tram rail_urban rail rail_electric rail_fast ship" speed="19.44" length="7.51" shape="667.35,934.50 668.76,935.87 670.01,936.49 671.31,937.06 672.90,938.27"/>
    </edge>
    <edge id=":2014626887_0" function="internal">
        <lane id=":2014626887_0_0" index="0" disallow="tram rail_urban rail rail_electric rail_fast ship" speed="13.89" length="8.19" shape="1931.45,814.33 1930.07,816.30 1928.81,817.44 1927.56,818.59 1926.21,820.58"/>
        <lane id=":2014626887_0_1" index="1" disallow="tram rail_urban rail rail_electric rail_fast ship" speed="13.89" length="8.19" shape="1934.25,815.88 1932.87,817.85 1931.62,818.98 1930.37,820.12 1929.02,822.10"/>
    </edge>
    <edge id=":237567113_0" function="internal">
        <lane id=":237567113_0_0" index="0" disallow="tram rail_urban rail rail_electric rail_fast ship" speed="19.44" length="8.19" shape="1855.55,490.29 1854.99,487.92 1854.96,486.22 1854.92,484.52 1854.32,482.17"/>
        <lane id=":237567113_0_1" index="1" disallow="tram rail_urban rail rail_electric rail_fast ship" speed="19.44" length="8.19" shape="1852.53,491.35 1851.97,489.00 1851.95,487.30 1851.92,485.61 1851.32,483.28"/>
        <lane id=":237567113_0_2" index="2" disallow="tram rail_urban rail rail_electric rail_fast ship" speed="19.44" length="8.19" shape="1849.51,492.41 1848.96,490.08 1848.94,488.39 1848.91,486.71 1848.32,484.39"/>